Circuit: *** SPICE deck for cell Counter16{sch} from library Counter_16

Instance "m:and2_1x_0:nmos_0": Length shorter than recommended for a level 3 MOSFET.
Instance "m:and2_1x_0:nmos_0": Width narrower than recommended for a level 3 MOSFET.
Instance "m:and2_1x_0:nmos_1": Length shorter than recommended for a level 3 MOSFET.
Instance "m:and2_1x_0:nmos_1": Width narrower than recommended for a level 3 MOSFET.
Instance "m:and2_1x_0:nmos_2": Length shorter than recommended for a level 3 MOSFET.
Instance "m:flopr_c__4:nmos_2": Length shorter than recommended for a level 3 MOSFET.
Instance "m:flopr_c__4:nmos_2": Width narrower than recommended for a level 3 MOSFET.
Instance "m:flopr_c__4:nmos_3": Length shorter than recommended for a level 3 MOSFET.
Instance "m:flopr_c__4:nmos_3": Width narrower than recommended for a level 3 MOSFET.
Instance "m:flopr_c__4:nmos_4": Length shorter than recommended for a level 3 MOSFET.
Instance "m:flopr_c__4:nmos_4": Width narrower than recommended for a level 3 MOSFET.
Instance "m:flopr_c__4:nmos_5": Length shorter than recommended for a level 3 MOSFET.
Instance "m:flopr_c__4:nmos_5": Width narrower than recommended for a level 3 MOSFET.
Instance "m:flopr_c__4:nmos_6": Length shorter than recommended for a level 3 MOSFET.
Instance "m:flopr_c__4:nmos_6": Width narrower than recommended for a level 3 MOSFET.
Instance "m:flopr_c__4:nmos_7": Length shorter than recommended for a level 3 MOSFET.
Instance "m:flopr_c__4:nmos_7": Width narrower than recommended for a level 3 MOSFET.
Instance "m:flopr_c__4:nmos_8": Length shorter than recommended for a level 3 MOSFET.
Instance "m:flopr_c__4:nmos_8": Width narrower than recommended for a level 3 MOSFET.
Instance "m:flopr_c__4:nmos_10": Length shorter than recommended for a level 3 MOSFET.
Instance "m:flopr_c__4:nmos_10": Width narrower than recommended for a level 3 MOSFET.
Instance "m:flopr_c__4:nmos_11": Length shorter than recommended for a level 3 MOSFET.
Instance "m:flopr_c__4:nmos_17": Length shorter than recommended for a level 3 MOSFET.
Instance "m:flopr_c__4:nmos_19": Length shorter than recommended for a level 3 MOSFET.
Instance "m:flopr_c__4:nmos_19": Width narrower than recommended for a level 3 MOSFET.
Instance "m:flopr_c__4:nmos_22": Length shorter than recommended for a level 3 MOSFET.
Instance "m:flopr_c__4:nmos_22": Width narrower than recommended for a level 3 MOSFET.
Instance "m:flopr_c__4:nmos_25": Length shorter than recommended for a level 3 MOSFET.
Instance "m:flopr_c__4:nmos_25": Width narrower than recommended for a level 3 MOSFET.
Instance "m:flopr_c__4:nmos_26": Length shorter than recommended for a level 3 MOSFET.
Instance "m:flopr_c__4:nmos_26": Width narrower than recommended for a level 3 MOSFET.
Instance "m:flopr_c__4:nmos_27": Length shorter than recommended for a level 3 MOSFET.
Instance "m:flopr_c__4:nmos_27": Width narrower than recommended for a level 3 MOSFET.
Instance "m:flopr_c__5:nmos_2": Length shorter than recommended for a level 3 MOSFET.
Instance "m:flopr_c__5:nmos_2": Width narrower than recommended for a level 3 MOSFET.
Instance "m:flopr_c__5:nmos_3": Length shorter than recommended for a level 3 MOSFET.
Instance "m:flopr_c__5:nmos_3": Width narrower than recommended for a level 3 MOSFET.
Instance "m:flopr_c__5:nmos_4": Length shorter than recommended for a level 3 MOSFET.
Instance "m:flopr_c__5:nmos_4": Width narrower than recommended for a level 3 MOSFET.
Instance "m:flopr_c__5:nmos_5": Length shorter than recommended for a level 3 MOSFET.
Instance "m:flopr_c__5:nmos_5": Width narrower than recommended for a level 3 MOSFET.
Instance "m:flopr_c__5:nmos_6": Length shorter than recommended for a level 3 MOSFET.
Instance "m:flopr_c__5:nmos_6": Width narrower than recommended for a level 3 MOSFET.
Instance "m:flopr_c__5:nmos_7": Length shorter than recommended for a level 3 MOSFET.
Instance "m:flopr_c__5:nmos_7": Width narrower than recommended for a level 3 MOSFET.
Instance "m:flopr_c__5:nmos_8": Length shorter than recommended for a level 3 MOSFET.
Instance "m:flopr_c__5:nmos_8": Width narrower than recommended for a level 3 MOSFET.
Instance "m:flopr_c__5:nmos_10": Length shorter than recommended for a level 3 MOSFET.
Instance "m:flopr_c__5:nmos_10": Width narrower than recommended for a level 3 MOSFET.
Instance "m:flopr_c__5:nmos_11": Length shorter than recommended for a level 3 MOSFET.
Instance "m:flopr_c__5:nmos_17": Length shorter than recommended for a level 3 MOSFET.
Instance "m:flopr_c__5:nmos_19": Length shorter than recommended for a level 3 MOSFET.
Instance "m:flopr_c__5:nmos_19": Width narrower than recommended for a level 3 MOSFET.
Instance "m:flopr_c__5:nmos_22": Length shorter than recommended for a level 3 MOSFET.
Instance "m:flopr_c__5:nmos_22": Width narrower than recommended for a level 3 MOSFET.
Instance "m:flopr_c__5:nmos_25": Length shorter than recommended for a level 3 MOSFET.
Instance "m:flopr_c__5:nmos_25": Width narrower than recommended for a level 3 MOSFET.
Instance "m:flopr_c__5:nmos_26": Length shorter than recommended for a level 3 MOSFET.
Instance "m:flopr_c__5:nmos_26": Width narrower than recommended for a level 3 MOSFET.
Instance "m:flopr_c__5:nmos_27": Length shorter than recommended for a level 3 MOSFET.
Instance "m:flopr_c__5:nmos_27": Width narrower than recommended for a level 3 MOSFET.
Instance "m:flopr_c__6:nmos_2": Length shorter than recommended for a level 3 MOSFET.
Instance "m:flopr_c__6:nmos_2": Width narrower than recommended for a level 3 MOSFET.
Instance "m:flopr_c__6:nmos_3": Length shorter than recommended for a level 3 MOSFET.
Instance "m:flopr_c__6:nmos_3": Width narrower than recommended for a level 3 MOSFET.
Instance "m:flopr_c__6:nmos_4": Length shorter than recommended for a level 3 MOSFET.
Instance "m:flopr_c__6:nmos_4": Width narrower than recommended for a level 3 MOSFET.
Instance "m:flopr_c__6:nmos_5": Length shorter than recommended for a level 3 MOSFET.
Instance "m:flopr_c__6:nmos_5": Width narrower than recommended for a level 3 MOSFET.
Instance "m:flopr_c__6:nmos_6": Length shorter than recommended for a level 3 MOSFET.
Instance "m:flopr_c__6:nmos_6": Width narrower than recommended for a level 3 MOSFET.
Instance "m:flopr_c__6:nmos_7": Length shorter than recommended for a level 3 MOSFET.
Instance "m:flopr_c__6:nmos_7": Width narrower than recommended for a level 3 MOSFET.
Instance "m:flopr_c__6:nmos_8": Length shorter than recommended for a level 3 MOSFET.
Instance "m:flopr_c__6:nmos_8": Width narrower than recommended for a level 3 MOSFET.
Instance "m:flopr_c__6:nmos_10": Length shorter than recommended for a level 3 MOSFET.
Instance "m:flopr_c__6:nmos_10": Width narrower than recommended for a level 3 MOSFET.
Instance "m:flopr_c__6:nmos_11": Length shorter than recommended for a level 3 MOSFET.
Instance "m:flopr_c__6:nmos_17": Length shorter than recommended for a level 3 MOSFET.
Instance "m:flopr_c__6:nmos_19": Length shorter than recommended for a level 3 MOSFET.
Instance "m:flopr_c__6:nmos_19": Width narrower than recommended for a level 3 MOSFET.
Instance "m:flopr_c__6:nmos_22": Length shorter than recommended for a level 3 MOSFET.
Instance "m:flopr_c__6:nmos_22": Width narrower than recommended for a level 3 MOSFET.
Instance "m:flopr_c__6:nmos_25": Length shorter than recommended for a level 3 MOSFET.
Instance "m:flopr_c__6:nmos_25": Width narrower than recommended for a level 3 MOSFET.
Instance "m:flopr_c__6:nmos_26": Length shorter than recommended for a level 3 MOSFET.
Instance "m:flopr_c__6:nmos_26": Width narrower than recommended for a level 3 MOSFET.
Instance "m:flopr_c__6:nmos_27": Length shorter than recommended for a level 3 MOSFET.
Instance "m:flopr_c__6:nmos_27": Width narrower than recommended for a level 3 MOSFET.
Instance "m:flopr_c__7:nmos_2": Length shorter than recommended for a level 3 MOSFET.
Instance "m:flopr_c__7:nmos_2": Width narrower than recommended for a level 3 MOSFET.
Instance "m:flopr_c__7:nmos_3": Length shorter than recommended for a level 3 MOSFET.
Instance "m:flopr_c__7:nmos_3": Width narrower than recommended for a level 3 MOSFET.
Instance "m:flopr_c__7:nmos_4": Length shorter than recommended for a level 3 MOSFET.
Instance "m:flopr_c__7:nmos_4": Width narrower than recommended for a level 3 MOSFET.
Instance "m:flopr_c__7:nmos_5": Length shorter than recommended for a level 3 MOSFET.
Instance "m:flopr_c__7:nmos_5": Width narrower than recommended for a level 3 MOSFET.
Instance "m:flopr_c__7:nmos_6": Length shorter than recommended for a level 3 MOSFET.
Instance "m:flopr_c__7:nmos_6": Width narrower than recommended for a level 3 MOSFET.
Instance "m:flopr_c__7:nmos_7": Length shorter than recommended for a level 3 MOSFET.
Instance "m:flopr_c__7:nmos_7": Width narrower than recommended for a level 3 MOSFET.
Instance "m:flopr_c__7:nmos_8": Length shorter than recommended for a level 3 MOSFET.
Instance "m:flopr_c__7:nmos_8": Width narrower than recommended for a level 3 MOSFET.
Instance "m:flopr_c__7:nmos_10": Length shorter than recommended for a level 3 MOSFET.
Instance "m:flopr_c__7:nmos_10": Width narrower than recommended for a level 3 MOSFET.
Instance "m:flopr_c__7:nmos_11": Length shorter than recommended for a level 3 MOSFET.
Instance "m:flopr_c__7:nmos_17": Length shorter than recommended for a level 3 MOSFET.
Instance "m:flopr_c__7:nmos_19": Length shorter than recommended for a level 3 MOSFET.
Instance "m:flopr_c__7:nmos_19": Width narrower than recommended for a level 3 MOSFET.
Instance "m:flopr_c__7:nmos_22": Length shorter than recommended for a level 3 MOSFET.
Instance "m:flopr_c__7:nmos_22": Width narrower than recommended for a level 3 MOSFET.
Instance "m:flopr_c__7:nmos_25": Length shorter than recommended for a level 3 MOSFET.
Instance "m:flopr_c__7:nmos_25": Width narrower than recommended for a level 3 MOSFET.
Instance "m:flopr_c__7:nmos_26": Length shorter than recommended for a level 3 MOSFET.
Instance "m:flopr_c__7:nmos_26": Width narrower than recommended for a level 3 MOSFET.
Instance "m:flopr_c__7:nmos_27": Length shorter than recommended for a level 3 MOSFET.
Instance "m:flopr_c__7:nmos_27": Width narrower than recommended for a level 3 MOSFET.
Instance "m:inv_1x_1:nmos_0": Length shorter than recommended for a level 3 MOSFET.
Instance "m:inv_1x_2:nmos_0": Length shorter than recommended for a level 3 MOSFET.
Instance "m:inv_1x_3:nmos_0": Length shorter than recommended for a level 3 MOSFET.
Instance "m:inv_1x_4:nmos_0": Length shorter than recommended for a level 3 MOSFET.
Instance "m:inv_1x_5:nmos_0": Length shorter than recommended for a level 3 MOSFET.
Instance "m:and2_1x_0:pmos_0": Length shorter than recommended for a level 3 MOSFET.
Instance "m:and2_1x_0:pmos_0": Width narrower than recommended for a level 3 MOSFET.
Instance "m:and2_1x_0:pmos_1": Length shorter than recommended for a level 3 MOSFET.
Instance "m:and2_1x_0:pmos_1": Width narrower than recommended for a level 3 MOSFET.
Instance "m:and2_1x_0:pmos_2": Length shorter than recommended for a level 3 MOSFET.
Instance "m:flopr_c__4:pmos_2": Length shorter than recommended for a level 3 MOSFET.
Instance "m:flopr_c__4:pmos_2": Width narrower than recommended for a level 3 MOSFET.
Instance "m:flopr_c__4:pmos_3": Length shorter than recommended for a level 3 MOSFET.
Instance "m:flopr_c__4:pmos_4": Length shorter than recommended for a level 3 MOSFET.
Instance "m:flopr_c__4:pmos_4": Width narrower than recommended for a level 3 MOSFET.
Instance "m:flopr_c__4:pmos_5": Length shorter than recommended for a level 3 MOSFET.
Instance "m:flopr_c__4:pmos_5": Width narrower than recommended for a level 3 MOSFET.
Instance "m:flopr_c__4:pmos_6": Length shorter than recommended for a level 3 MOSFET.
Instance "m:flopr_c__4:pmos_6": Width narrower than recommended for a level 3 MOSFET.
Instance "m:flopr_c__4:pmos_7": Length shorter than recommended for a level 3 MOSFET.
Instance "m:flopr_c__4:pmos_7": Width narrower than recommended for a level 3 MOSFET.
Instance "m:flopr_c__4:pmos_8": Length shorter than recommended for a level 3 MOSFET.
Instance "m:flopr_c__4:pmos_10": Length shorter than recommended for a level 3 MOSFET.
Instance "m:flopr_c__4:pmos_10": Width narrower than recommended for a level 3 MOSFET.
Instance "m:flopr_c__4:pmos_11": Length shorter than recommended for a level 3 MOSFET.
Instance "m:flopr_c__4:pmos_16": Length shorter than recommended for a level 3 MOSFET.
Instance "m:flopr_c__4:pmos_18": Length shorter than recommended for a level 3 MOSFET.
Instance "m:flopr_c__4:pmos_18": Width narrower than recommended for a level 3 MOSFET.
Instance "m:flopr_c__4:pmos_21": Length shorter than recommended for a level 3 MOSFET.
Instance "m:flopr_c__4:pmos_22": Length shorter than recommended for a level 3 MOSFET.
Instance "m:flopr_c__4:pmos_24": Length shorter than recommended for a level 3 MOSFET.
Instance "m:flopr_c__4:pmos_25": Length shorter than recommended for a level 3 MOSFET.
Instance "m:flopr_c__5:pmos_2": Length shorter than recommended for a level 3 MOSFET.
Instance "m:flopr_c__5:pmos_2": Width narrower than recommended for a level 3 MOSFET.
Instance "m:flopr_c__5:pmos_3": Length shorter than recommended for a level 3 MOSFET.
Instance "m:flopr_c__5:pmos_4": Length shorter than recommended for a level 3 MOSFET.
Instance "m:flopr_c__5:pmos_4": Width narrower than recommended for a level 3 MOSFET.
Instance "m:flopr_c__5:pmos_5": Length shorter than recommended for a level 3 MOSFET.
Instance "m:flopr_c__5:pmos_5": Width narrower than recommended for a level 3 MOSFET.
Instance "m:flopr_c__5:pmos_6": Length shorter than recommended for a level 3 MOSFET.
Instance "m:flopr_c__5:pmos_6": Width narrower than recommended for a level 3 MOSFET.
Instance "m:flopr_c__5:pmos_7": Length shorter than recommended for a level 3 MOSFET.
Instance "m:flopr_c__5:pmos_7": Width narrower than recommended for a level 3 MOSFET.
Instance "m:flopr_c__5:pmos_8": Length shorter than recommended for a level 3 MOSFET.
Instance "m:flopr_c__5:pmos_10": Length shorter than recommended for a level 3 MOSFET.
Instance "m:flopr_c__5:pmos_10": Width narrower than recommended for a level 3 MOSFET.
Instance "m:flopr_c__5:pmos_11": Length shorter than recommended for a level 3 MOSFET.
Instance "m:flopr_c__5:pmos_16": Length shorter than recommended for a level 3 MOSFET.
Instance "m:flopr_c__5:pmos_18": Length shorter than recommended for a level 3 MOSFET.
Instance "m:flopr_c__5:pmos_18": Width narrower than recommended for a level 3 MOSFET.
Instance "m:flopr_c__5:pmos_21": Length shorter than recommended for a level 3 MOSFET.
Instance "m:flopr_c__5:pmos_22": Length shorter than recommended for a level 3 MOSFET.
Instance "m:flopr_c__5:pmos_24": Length shorter than recommended for a level 3 MOSFET.
Instance "m:flopr_c__5:pmos_25": Length shorter than recommended for a level 3 MOSFET.
Instance "m:flopr_c__6:pmos_2": Length shorter than recommended for a level 3 MOSFET.
Instance "m:flopr_c__6:pmos_2": Width narrower than recommended for a level 3 MOSFET.
Instance "m:flopr_c__6:pmos_3": Length shorter than recommended for a level 3 MOSFET.
Instance "m:flopr_c__6:pmos_4": Length shorter than recommended for a level 3 MOSFET.
Instance "m:flopr_c__6:pmos_4": Width narrower than recommended for a level 3 MOSFET.
Instance "m:flopr_c__6:pmos_5": Length shorter than recommended for a level 3 MOSFET.
Instance "m:flopr_c__6:pmos_5": Width narrower than recommended for a level 3 MOSFET.
Instance "m:flopr_c__6:pmos_6": Length shorter than recommended for a level 3 MOSFET.
Instance "m:flopr_c__6:pmos_6": Width narrower than recommended for a level 3 MOSFET.
Instance "m:flopr_c__6:pmos_7": Length shorter than recommended for a level 3 MOSFET.
Instance "m:flopr_c__6:pmos_7": Width narrower than recommended for a level 3 MOSFET.
Instance "m:flopr_c__6:pmos_8": Length shorter than recommended for a level 3 MOSFET.
Instance "m:flopr_c__6:pmos_10": Length shorter than recommended for a level 3 MOSFET.
Instance "m:flopr_c__6:pmos_10": Width narrower than recommended for a level 3 MOSFET.
Instance "m:flopr_c__6:pmos_11": Length shorter than recommended for a level 3 MOSFET.
Instance "m:flopr_c__6:pmos_16": Length shorter than recommended for a level 3 MOSFET.
Instance "m:flopr_c__6:pmos_18": Length shorter than recommended for a level 3 MOSFET.
Instance "m:flopr_c__6:pmos_18": Width narrower than recommended for a level 3 MOSFET.
Instance "m:flopr_c__6:pmos_21": Length shorter than recommended for a level 3 MOSFET.
Instance "m:flopr_c__6:pmos_22": Length shorter than recommended for a level 3 MOSFET.
Instance "m:flopr_c__6:pmos_24": Length shorter than recommended for a level 3 MOSFET.
Instance "m:flopr_c__6:pmos_25": Length shorter than recommended for a level 3 MOSFET.
Instance "m:flopr_c__7:pmos_2": Length shorter than recommended for a level 3 MOSFET.
Instance "m:flopr_c__7:pmos_2": Width narrower than recommended for a level 3 MOSFET.
Instance "m:flopr_c__7:pmos_3": Length shorter than recommended for a level 3 MOSFET.
Instance "m:flopr_c__7:pmos_4": Length shorter than recommended for a level 3 MOSFET.
Instance "m:flopr_c__7:pmos_4": Width narrower than recommended for a level 3 MOSFET.
Instance "m:flopr_c__7:pmos_5": Length shorter than recommended for a level 3 MOSFET.
Instance "m:flopr_c__7:pmos_5": Width narrower than recommended for a level 3 MOSFET.
Instance "m:flopr_c__7:pmos_6": Length shorter than recommended for a level 3 MOSFET.
Instance "m:flopr_c__7:pmos_6": Width narrower than recommended for a level 3 MOSFET.
Instance "m:flopr_c__7:pmos_7": Length shorter than recommended for a level 3 MOSFET.
Instance "m:flopr_c__7:pmos_7": Width narrower than recommended for a level 3 MOSFET.
Instance "m:flopr_c__7:pmos_8": Length shorter than recommended for a level 3 MOSFET.
Instance "m:flopr_c__7:pmos_10": Length shorter than recommended for a level 3 MOSFET.
Instance "m:flopr_c__7:pmos_10": Width narrower than recommended for a level 3 MOSFET.
Instance "m:flopr_c__7:pmos_11": Length shorter than recommended for a level 3 MOSFET.
Instance "m:flopr_c__7:pmos_16": Length shorter than recommended for a level 3 MOSFET.
Instance "m:flopr_c__7:pmos_18": Length shorter than recommended for a level 3 MOSFET.
Instance "m:flopr_c__7:pmos_18": Width narrower than recommended for a level 3 MOSFET.
Instance "m:flopr_c__7:pmos_21": Length shorter than recommended for a level 3 MOSFET.
Instance "m:flopr_c__7:pmos_22": Length shorter than recommended for a level 3 MOSFET.
Instance "m:flopr_c__7:pmos_24": Length shorter than recommended for a level 3 MOSFET.
Instance "m:flopr_c__7:pmos_25": Length shorter than recommended for a level 3 MOSFET.
Instance "m:inv_1x_1:pmos_0": Length shorter than recommended for a level 3 MOSFET.
Instance "m:inv_1x_2:pmos_0": Length shorter than recommended for a level 3 MOSFET.
Instance "m:inv_1x_3:pmos_0": Length shorter than recommended for a level 3 MOSFET.
Instance "m:inv_1x_4:pmos_0": Length shorter than recommended for a level 3 MOSFET.
Instance "m:inv_1x_5:pmos_0": Length shorter than recommended for a level 3 MOSFET.
Direct Newton iteration for .op point succeeded.
