Circuit: *** SPICE deck for cell Counter16{lay} from library Counter_16

Warning: Multiple definitions of model "p_50n" Type: BSIM4
Warning: Multiple definitions of model "n_50n" Type: BSIM4
Warning: Multiple definitions of model "p_1u" Type: Mos3
Warning: Multiple definitions of model "n_1u" Type: Mos3
Instance "m:and2_1x_2:nmos_0": Length shorter than recommended for a level 3 MOSFET.
Instance "m:and2_1x_2:nmos_0": Width narrower than recommended for a level 3 MOSFET.
Instance "m:and2_1x_2:nmos_1": Length shorter than recommended for a level 3 MOSFET.
Instance "m:and2_1x_2:nmos_1": Width narrower than recommended for a level 3 MOSFET.
Instance "m:and2_1x_2:nmos_2": Length shorter than recommended for a level 3 MOSFET.
Instance "m:flopr_c__4:nmos_0": Length shorter than recommended for a level 3 MOSFET.
Instance "m:flopr_c__4:nmos_2": Length shorter than recommended for a level 3 MOSFET.
Instance "m:flopr_c__4:nmos_2": Width narrower than recommended for a level 3 MOSFET.
Instance "m:flopr_c__4:nmos_12": Length shorter than recommended for a level 3 MOSFET.
Instance "m:flopr_c__4:nmos_12": Width narrower than recommended for a level 3 MOSFET.
Instance "m:flopr_c__4:nmos_14": Length shorter than recommended for a level 3 MOSFET.
Instance "m:flopr_c__4:nmos_14": Width narrower than recommended for a level 3 MOSFET.
Instance "m:flopr_c__4:nmos_16": Length shorter than recommended for a level 3 MOSFET.
Instance "m:flopr_c__4:nmos_16": Width narrower than recommended for a level 3 MOSFET.
Instance "m:flopr_c__4:nmos_18": Length shorter than recommended for a level 3 MOSFET.
Instance "m:flopr_c__4:nmos_18": Width narrower than recommended for a level 3 MOSFET.
Instance "m:flopr_c__4:nmos_19": Length shorter than recommended for a level 3 MOSFET.
Instance "m:flopr_c__4:nmos_19": Width narrower than recommended for a level 3 MOSFET.
Instance "m:flopr_c__4:nmos_20": Length shorter than recommended for a level 3 MOSFET.
Instance "m:flopr_c__4:nmos_20": Width narrower than recommended for a level 3 MOSFET.
Instance "m:flopr_c__4:nmos_21": Length shorter than recommended for a level 3 MOSFET.
Instance "m:flopr_c__4:nmos_21": Width narrower than recommended for a level 3 MOSFET.
Instance "m:flopr_c__4:nmos_22": Length shorter than recommended for a level 3 MOSFET.
Instance "m:flopr_c__4:nmos_22": Width narrower than recommended for a level 3 MOSFET.
Instance "m:flopr_c__4:nmos_23": Length shorter than recommended for a level 3 MOSFET.
Instance "m:flopr_c__4:nmos_23": Width narrower than recommended for a level 3 MOSFET.
Instance "m:flopr_c__4:nmos_24": Length shorter than recommended for a level 3 MOSFET.
Instance "m:flopr_c__4:nmos_24": Width narrower than recommended for a level 3 MOSFET.
Instance "m:flopr_c__4:nmos_25": Length shorter than recommended for a level 3 MOSFET.
Instance "m:flopr_c__4:nmos_25": Width narrower than recommended for a level 3 MOSFET.
Instance "m:flopr_c__4:nmos_26": Length shorter than recommended for a level 3 MOSFET.
Instance "m:flopr_c__4:nmos_27": Length shorter than recommended for a level 3 MOSFET.
Instance "m:flopr_c__4:nmos_27": Width narrower than recommended for a level 3 MOSFET.
Instance "m:flopr_c__5:nmos_0": Length shorter than recommended for a level 3 MOSFET.
Instance "m:flopr_c__5:nmos_2": Length shorter than recommended for a level 3 MOSFET.
Instance "m:flopr_c__5:nmos_2": Width narrower than recommended for a level 3 MOSFET.
Instance "m:flopr_c__5:nmos_12": Length shorter than recommended for a level 3 MOSFET.
Instance "m:flopr_c__5:nmos_12": Width narrower than recommended for a level 3 MOSFET.
Instance "m:flopr_c__5:nmos_14": Length shorter than recommended for a level 3 MOSFET.
Instance "m:flopr_c__5:nmos_14": Width narrower than recommended for a level 3 MOSFET.
Instance "m:flopr_c__5:nmos_16": Length shorter than recommended for a level 3 MOSFET.
Instance "m:flopr_c__5:nmos_16": Width narrower than recommended for a level 3 MOSFET.
Instance "m:flopr_c__5:nmos_18": Length shorter than recommended for a level 3 MOSFET.
Instance "m:flopr_c__5:nmos_18": Width narrower than recommended for a level 3 MOSFET.
Instance "m:flopr_c__5:nmos_19": Length shorter than recommended for a level 3 MOSFET.
Instance "m:flopr_c__5:nmos_19": Width narrower than recommended for a level 3 MOSFET.
Instance "m:flopr_c__5:nmos_20": Length shorter than recommended for a level 3 MOSFET.
Instance "m:flopr_c__5:nmos_20": Width narrower than recommended for a level 3 MOSFET.
Instance "m:flopr_c__5:nmos_21": Length shorter than recommended for a level 3 MOSFET.
Instance "m:flopr_c__5:nmos_21": Width narrower than recommended for a level 3 MOSFET.
Instance "m:flopr_c__5:nmos_22": Length shorter than recommended for a level 3 MOSFET.
Instance "m:flopr_c__5:nmos_22": Width narrower than recommended for a level 3 MOSFET.
Instance "m:flopr_c__5:nmos_23": Length shorter than recommended for a level 3 MOSFET.
Instance "m:flopr_c__5:nmos_23": Width narrower than recommended for a level 3 MOSFET.
Instance "m:flopr_c__5:nmos_24": Length shorter than recommended for a level 3 MOSFET.
Instance "m:flopr_c__5:nmos_24": Width narrower than recommended for a level 3 MOSFET.
Instance "m:flopr_c__5:nmos_25": Length shorter than recommended for a level 3 MOSFET.
Instance "m:flopr_c__5:nmos_25": Width narrower than recommended for a level 3 MOSFET.
Instance "m:flopr_c__5:nmos_26": Length shorter than recommended for a level 3 MOSFET.
Instance "m:flopr_c__5:nmos_27": Length shorter than recommended for a level 3 MOSFET.
Instance "m:flopr_c__5:nmos_27": Width narrower than recommended for a level 3 MOSFET.
Instance "m:flopr_c__6:nmos_0": Length shorter than recommended for a level 3 MOSFET.
Instance "m:flopr_c__6:nmos_2": Length shorter than recommended for a level 3 MOSFET.
Instance "m:flopr_c__6:nmos_2": Width narrower than recommended for a level 3 MOSFET.
Instance "m:flopr_c__6:nmos_12": Length shorter than recommended for a level 3 MOSFET.
Instance "m:flopr_c__6:nmos_12": Width narrower than recommended for a level 3 MOSFET.
Instance "m:flopr_c__6:nmos_14": Length shorter than recommended for a level 3 MOSFET.
Instance "m:flopr_c__6:nmos_14": Width narrower than recommended for a level 3 MOSFET.
Instance "m:flopr_c__6:nmos_16": Length shorter than recommended for a level 3 MOSFET.
Instance "m:flopr_c__6:nmos_16": Width narrower than recommended for a level 3 MOSFET.
Instance "m:flopr_c__6:nmos_18": Length shorter than recommended for a level 3 MOSFET.
Instance "m:flopr_c__6:nmos_18": Width narrower than recommended for a level 3 MOSFET.
Instance "m:flopr_c__6:nmos_19": Length shorter than recommended for a level 3 MOSFET.
Instance "m:flopr_c__6:nmos_19": Width narrower than recommended for a level 3 MOSFET.
Instance "m:flopr_c__6:nmos_20": Length shorter than recommended for a level 3 MOSFET.
Instance "m:flopr_c__6:nmos_20": Width narrower than recommended for a level 3 MOSFET.
Instance "m:flopr_c__6:nmos_21": Length shorter than recommended for a level 3 MOSFET.
Instance "m:flopr_c__6:nmos_21": Width narrower than recommended for a level 3 MOSFET.
Instance "m:flopr_c__6:nmos_22": Length shorter than recommended for a level 3 MOSFET.
Instance "m:flopr_c__6:nmos_22": Width narrower than recommended for a level 3 MOSFET.
Instance "m:flopr_c__6:nmos_23": Length shorter than recommended for a level 3 MOSFET.
Instance "m:flopr_c__6:nmos_23": Width narrower than recommended for a level 3 MOSFET.
Instance "m:flopr_c__6:nmos_24": Length shorter than recommended for a level 3 MOSFET.
Instance "m:flopr_c__6:nmos_24": Width narrower than recommended for a level 3 MOSFET.
Instance "m:flopr_c__6:nmos_25": Length shorter than recommended for a level 3 MOSFET.
Instance "m:flopr_c__6:nmos_25": Width narrower than recommended for a level 3 MOSFET.
Instance "m:flopr_c__6:nmos_26": Length shorter than recommended for a level 3 MOSFET.
Instance "m:flopr_c__6:nmos_27": Length shorter than recommended for a level 3 MOSFET.
Instance "m:flopr_c__6:nmos_27": Width narrower than recommended for a level 3 MOSFET.
Instance "m:flopr_c__7:nmos_0": Length shorter than recommended for a level 3 MOSFET.
Instance "m:flopr_c__7:nmos_2": Length shorter than recommended for a level 3 MOSFET.
Instance "m:flopr_c__7:nmos_2": Width narrower than recommended for a level 3 MOSFET.
Instance "m:flopr_c__7:nmos_12": Length shorter than recommended for a level 3 MOSFET.
Instance "m:flopr_c__7:nmos_12": Width narrower than recommended for a level 3 MOSFET.
Instance "m:flopr_c__7:nmos_14": Length shorter than recommended for a level 3 MOSFET.
Instance "m:flopr_c__7:nmos_14": Width narrower than recommended for a level 3 MOSFET.
Instance "m:flopr_c__7:nmos_16": Length shorter than recommended for a level 3 MOSFET.
Instance "m:flopr_c__7:nmos_16": Width narrower than recommended for a level 3 MOSFET.
Instance "m:flopr_c__7:nmos_18": Length shorter than recommended for a level 3 MOSFET.
Instance "m:flopr_c__7:nmos_18": Width narrower than recommended for a level 3 MOSFET.
Instance "m:flopr_c__7:nmos_19": Length shorter than recommended for a level 3 MOSFET.
Instance "m:flopr_c__7:nmos_19": Width narrower than recommended for a level 3 MOSFET.
Instance "m:flopr_c__7:nmos_20": Length shorter than recommended for a level 3 MOSFET.
Instance "m:flopr_c__7:nmos_20": Width narrower than recommended for a level 3 MOSFET.
Instance "m:flopr_c__7:nmos_21": Length shorter than recommended for a level 3 MOSFET.
Instance "m:flopr_c__7:nmos_21": Width narrower than recommended for a level 3 MOSFET.
Instance "m:flopr_c__7:nmos_22": Length shorter than recommended for a level 3 MOSFET.
Instance "m:flopr_c__7:nmos_22": Width narrower than recommended for a level 3 MOSFET.
Instance "m:flopr_c__7:nmos_23": Length shorter than recommended for a level 3 MOSFET.
Instance "m:flopr_c__7:nmos_23": Width narrower than recommended for a level 3 MOSFET.
Instance "m:flopr_c__7:nmos_24": Length shorter than recommended for a level 3 MOSFET.
Instance "m:flopr_c__7:nmos_24": Width narrower than recommended for a level 3 MOSFET.
Instance "m:flopr_c__7:nmos_25": Length shorter than recommended for a level 3 MOSFET.
Instance "m:flopr_c__7:nmos_25": Width narrower than recommended for a level 3 MOSFET.
Instance "m:flopr_c__7:nmos_26": Length shorter than recommended for a level 3 MOSFET.
Instance "m:flopr_c__7:nmos_27": Length shorter than recommended for a level 3 MOSFET.
Instance "m:flopr_c__7:nmos_27": Width narrower than recommended for a level 3 MOSFET.
Instance "m:inv_1x_6:nmos_0": Length shorter than recommended for a level 3 MOSFET.
Instance "m:inv_1x_7:nmos_0": Length shorter than recommended for a level 3 MOSFET.
Instance "m:inv_1x_9:nmos_0": Length shorter than recommended for a level 3 MOSFET.
Instance "m:inv_1x_10:nmos_0": Length shorter than recommended for a level 3 MOSFET.
Instance "m:inv_1x_11:nmos_0": Length shorter than recommended for a level 3 MOSFET.
Instance "m:and2_1x_2:pmos_0": Length shorter than recommended for a level 3 MOSFET.
Instance "m:and2_1x_2:pmos_0": Width narrower than recommended for a level 3 MOSFET.
Instance "m:and2_1x_2:pmos_1": Length shorter than recommended for a level 3 MOSFET.
Instance "m:and2_1x_2:pmos_1": Width narrower than recommended for a level 3 MOSFET.
Instance "m:and2_1x_2:pmos_2": Length shorter than recommended for a level 3 MOSFET.
Instance "m:flopr_c__4:pmos_2": Length shorter than recommended for a level 3 MOSFET.
Instance "m:flopr_c__4:pmos_6": Length shorter than recommended for a level 3 MOSFET.
Instance "m:flopr_c__4:pmos_6": Width narrower than recommended for a level 3 MOSFET.
Instance "m:flopr_c__4:pmos_12": Length shorter than recommended for a level 3 MOSFET.
Instance "m:flopr_c__4:pmos_13": Length shorter than recommended for a level 3 MOSFET.
Instance "m:flopr_c__4:pmos_14": Length shorter than recommended for a level 3 MOSFET.
Instance "m:flopr_c__4:pmos_17": Length shorter than recommended for a level 3 MOSFET.
Instance "m:flopr_c__4:pmos_17": Width narrower than recommended for a level 3 MOSFET.
Instance "m:flopr_c__4:pmos_18": Length shorter than recommended for a level 3 MOSFET.
Instance "m:flopr_c__4:pmos_18": Width narrower than recommended for a level 3 MOSFET.
Instance "m:flopr_c__4:pmos_19": Length shorter than recommended for a level 3 MOSFET.
Instance "m:flopr_c__4:pmos_19": Width narrower than recommended for a level 3 MOSFET.
Instance "m:flopr_c__4:pmos_20": Length shorter than recommended for a level 3 MOSFET.
Instance "m:flopr_c__4:pmos_21": Length shorter than recommended for a level 3 MOSFET.
Instance "m:flopr_c__4:pmos_21": Width narrower than recommended for a level 3 MOSFET.
Instance "m:flopr_c__4:pmos_22": Length shorter than recommended for a level 3 MOSFET.
Instance "m:flopr_c__4:pmos_22": Width narrower than recommended for a level 3 MOSFET.
Instance "m:flopr_c__4:pmos_23": Length shorter than recommended for a level 3 MOSFET.
Instance "m:flopr_c__4:pmos_23": Width narrower than recommended for a level 3 MOSFET.
Instance "m:flopr_c__4:pmos_24": Length shorter than recommended for a level 3 MOSFET.
Instance "m:flopr_c__4:pmos_25": Length shorter than recommended for a level 3 MOSFET.
Instance "m:flopr_c__4:pmos_26": Length shorter than recommended for a level 3 MOSFET.
Instance "m:flopr_c__5:pmos_2": Length shorter than recommended for a level 3 MOSFET.
Instance "m:flopr_c__5:pmos_6": Length shorter than recommended for a level 3 MOSFET.
Instance "m:flopr_c__5:pmos_6": Width narrower than recommended for a level 3 MOSFET.
Instance "m:flopr_c__5:pmos_12": Length shorter than recommended for a level 3 MOSFET.
Instance "m:flopr_c__5:pmos_13": Length shorter than recommended for a level 3 MOSFET.
Instance "m:flopr_c__5:pmos_14": Length shorter than recommended for a level 3 MOSFET.
Instance "m:flopr_c__5:pmos_17": Length shorter than recommended for a level 3 MOSFET.
Instance "m:flopr_c__5:pmos_17": Width narrower than recommended for a level 3 MOSFET.
Instance "m:flopr_c__5:pmos_18": Length shorter than recommended for a level 3 MOSFET.
Instance "m:flopr_c__5:pmos_18": Width narrower than recommended for a level 3 MOSFET.
Instance "m:flopr_c__5:pmos_19": Length shorter than recommended for a level 3 MOSFET.
Instance "m:flopr_c__5:pmos_19": Width narrower than recommended for a level 3 MOSFET.
Instance "m:flopr_c__5:pmos_20": Length shorter than recommended for a level 3 MOSFET.
Instance "m:flopr_c__5:pmos_21": Length shorter than recommended for a level 3 MOSFET.
Instance "m:flopr_c__5:pmos_21": Width narrower than recommended for a level 3 MOSFET.
Instance "m:flopr_c__5:pmos_22": Length shorter than recommended for a level 3 MOSFET.
Instance "m:flopr_c__5:pmos_22": Width narrower than recommended for a level 3 MOSFET.
Instance "m:flopr_c__5:pmos_23": Length shorter than recommended for a level 3 MOSFET.
Instance "m:flopr_c__5:pmos_23": Width narrower than recommended for a level 3 MOSFET.
Instance "m:flopr_c__5:pmos_24": Length shorter than recommended for a level 3 MOSFET.
Instance "m:flopr_c__5:pmos_25": Length shorter than recommended for a level 3 MOSFET.
Instance "m:flopr_c__5:pmos_26": Length shorter than recommended for a level 3 MOSFET.
Instance "m:flopr_c__6:pmos_2": Length shorter than recommended for a level 3 MOSFET.
Instance "m:flopr_c__6:pmos_6": Length shorter than recommended for a level 3 MOSFET.
Instance "m:flopr_c__6:pmos_6": Width narrower than recommended for a level 3 MOSFET.
Instance "m:flopr_c__6:pmos_12": Length shorter than recommended for a level 3 MOSFET.
Instance "m:flopr_c__6:pmos_13": Length shorter than recommended for a level 3 MOSFET.
Instance "m:flopr_c__6:pmos_14": Length shorter than recommended for a level 3 MOSFET.
Instance "m:flopr_c__6:pmos_17": Length shorter than recommended for a level 3 MOSFET.
Instance "m:flopr_c__6:pmos_17": Width narrower than recommended for a level 3 MOSFET.
Instance "m:flopr_c__6:pmos_18": Length shorter than recommended for a level 3 MOSFET.
Instance "m:flopr_c__6:pmos_18": Width narrower than recommended for a level 3 MOSFET.
Instance "m:flopr_c__6:pmos_19": Length shorter than recommended for a level 3 MOSFET.
Instance "m:flopr_c__6:pmos_19": Width narrower than recommended for a level 3 MOSFET.
Instance "m:flopr_c__6:pmos_20": Length shorter than recommended for a level 3 MOSFET.
Instance "m:flopr_c__6:pmos_21": Length shorter than recommended for a level 3 MOSFET.
Instance "m:flopr_c__6:pmos_21": Width narrower than recommended for a level 3 MOSFET.
Instance "m:flopr_c__6:pmos_22": Length shorter than recommended for a level 3 MOSFET.
Instance "m:flopr_c__6:pmos_22": Width narrower than recommended for a level 3 MOSFET.
Instance "m:flopr_c__6:pmos_23": Length shorter than recommended for a level 3 MOSFET.
Instance "m:flopr_c__6:pmos_23": Width narrower than recommended for a level 3 MOSFET.
Instance "m:flopr_c__6:pmos_24": Length shorter than recommended for a level 3 MOSFET.
Instance "m:flopr_c__6:pmos_25": Length shorter than recommended for a level 3 MOSFET.
Instance "m:flopr_c__6:pmos_26": Length shorter than recommended for a level 3 MOSFET.
Instance "m:flopr_c__7:pmos_2": Length shorter than recommended for a level 3 MOSFET.
Instance "m:flopr_c__7:pmos_6": Length shorter than recommended for a level 3 MOSFET.
Instance "m:flopr_c__7:pmos_6": Width narrower than recommended for a level 3 MOSFET.
Instance "m:flopr_c__7:pmos_12": Length shorter than recommended for a level 3 MOSFET.
Instance "m:flopr_c__7:pmos_13": Length shorter than recommended for a level 3 MOSFET.
Instance "m:flopr_c__7:pmos_14": Length shorter than recommended for a level 3 MOSFET.
Instance "m:flopr_c__7:pmos_17": Length shorter than recommended for a level 3 MOSFET.
Instance "m:flopr_c__7:pmos_17": Width narrower than recommended for a level 3 MOSFET.
Instance "m:flopr_c__7:pmos_18": Length shorter than recommended for a level 3 MOSFET.
Instance "m:flopr_c__7:pmos_18": Width narrower than recommended for a level 3 MOSFET.
Instance "m:flopr_c__7:pmos_19": Length shorter than recommended for a level 3 MOSFET.
Instance "m:flopr_c__7:pmos_19": Width narrower than recommended for a level 3 MOSFET.
Instance "m:flopr_c__7:pmos_20": Length shorter than recommended for a level 3 MOSFET.
Instance "m:flopr_c__7:pmos_21": Length shorter than recommended for a level 3 MOSFET.
Instance "m:flopr_c__7:pmos_21": Width narrower than recommended for a level 3 MOSFET.
Instance "m:flopr_c__7:pmos_22": Length shorter than recommended for a level 3 MOSFET.
Instance "m:flopr_c__7:pmos_22": Width narrower than recommended for a level 3 MOSFET.
Instance "m:flopr_c__7:pmos_23": Length shorter than recommended for a level 3 MOSFET.
Instance "m:flopr_c__7:pmos_23": Width narrower than recommended for a level 3 MOSFET.
Instance "m:flopr_c__7:pmos_24": Length shorter than recommended for a level 3 MOSFET.
Instance "m:flopr_c__7:pmos_25": Length shorter than recommended for a level 3 MOSFET.
Instance "m:flopr_c__7:pmos_26": Length shorter than recommended for a level 3 MOSFET.
Instance "m:inv_1x_6:pmos_0": Length shorter than recommended for a level 3 MOSFET.
Instance "m:inv_1x_7:pmos_0": Length shorter than recommended for a level 3 MOSFET.
Instance "m:inv_1x_9:pmos_0": Length shorter than recommended for a level 3 MOSFET.
Instance "m:inv_1x_10:pmos_0": Length shorter than recommended for a level 3 MOSFET.
Instance "m:inv_1x_11:pmos_0": Length shorter than recommended for a level 3 MOSFET.
Early termination of direct N-R iteration.
Direct Newton iteration failed to find .op point.  (Use ".option noopiter" to skip.)
Starting Gmin stepping
Gmin = 10
Gmin = 1.07374
Gmin = 0.115292
Gmin = 0.0123794
Gmin = 0.00132923
Gmin = 0.000142725
Gmin = 1.5325e-05
Gmin = 1.6455e-06
Gmin = 1.76685e-07
Gmin = 1.89714e-08
Gmin = 2.03704e-09
Gmin = 2.18725e-10
Gmin = 2.34854e-11
Gmin = 2.52173e-12
Gmin = 2.70769e-13
Gmin = 0
Gmin stepping succeeded in finding the operating point.

