Circuit: *** SPICE deck for cell R_Divider_5Bit_DAC{sch} from library Lab_2

Fatal Error: No analysis request found.
