Circuit: *** SPICE deck for cell R_Divider_sim{lay} from library Lab_1_DAC

Direct Newton iteration for .op point succeeded.

Date: Sat Sep 23 15:33:23 2023
Total elapsed time: 0.110 seconds.

tnom = 27
temp = 27
method = trap
totiter = 3
traniter = 0
tranpoints = 0
accept = 0
rejected = 0
matrix size = 4
fillins = 0
solver = Normal
Avg thread counts: 8.0/0.0/8.0/8.0
Matrix Compiler1: 118 bytes object code size
Matrix Compiler2: 248 bytes object code size
