Circuit: *** SPICE deck for cell R_Divider_DAC_Sim_2{sch} from library Lab_1_DAC

.OP point found by inspection.

Date: Wed Sep 27 18:20:18 2023
Total elapsed time: 0.381 seconds.

tnom = 27
temp = 27
method = modified trap
totiter = 48084
traniter = 48084
tranpoints = 24043
accept = 24042
rejected = 1
matrix size = 13
fillins = 0
solver = Normal
Avg thread counts: 1.1/1.1/1.1/1.1
Matrix Compiler1: 586 bytes object code size  0.4/0.3/[0.2]
Matrix Compiler2: off  [0.1]/0.2/0.2

