Circuit: *** SPICE deck for cell R_Divider_5Bit_DAC{sch} from library Lab_1_DAC

v4: Missing value, assumed 0V @ DC
v3: Missing value, assumed 0V @ DC
v2: Missing value, assumed 0V @ DC
v1: Missing value, assumed 0V @ DC
Direct Newton iteration for .op point succeeded.

Date: Mon Sep 25 15:22:48 2023
Total elapsed time: 0.062 seconds.

tnom = 27
temp = 27
method = trap
totiter = 3
traniter = 0
tranpoints = 0
accept = 0
rejected = 0
matrix size = 21
fillins = 0
solver = Normal
Avg thread counts: 8.0/0.0/8.0/8.0
Matrix Compiler1: 788 bytes object code size
Matrix Compiler2: 1.43 KB object code size
