Circuit: *** SPICE deck for cell R_Divider_5Bit_DAC_sim{lay} from library Lab_1_DAC

WARNING: Less than two connections to node net_4.  This node is used by rresnwell_0.
WARNING: Less than two connections to node b4.  This node is used by v4.
v4: Missing value, assumed 0V @ DC
v3: Missing value, assumed 0V @ DC
v2: Missing value, assumed 0V @ DC
v1: Missing value, assumed 0V @ DC
Direct Newton iteration for .op point succeeded.

Date: Wed Sep 27 17:33:39 2023
Total elapsed time: 0.047 seconds.

tnom = 27
temp = 27
method = trap
totiter = 3
traniter = 0
tranpoints = 0
accept = 0
rejected = 0
matrix size = 22
fillins = 0
solver = Normal
Avg thread counts: 8.0/0.0/8.0/8.0
Matrix Compiler1: 802 bytes object code size
Matrix Compiler2: 1.45 KB object code size
