Circuit: *** SPICE deck for cell 3_stage_charge_pump{sch} from library Lab6

Direct Newton iteration for .op point succeeded.
