Circuit: *** SPICE deck for cell 3_stage_charge_pump{sch} from library Lab6

Direct Newton iteration for .op point succeeded.

Date: Thu Nov  9 11:08:24 2023
Total elapsed time: 2.289 seconds.

tnom = 27
temp = 27
method = modified trap
totiter = 74452
traniter = 74444
tranpoints = 34306
accept = 31793
rejected = 2513
matrix size = 26
fillins = 1
solver = Normal
Avg thread counts: 2.0/1.1/1.1/1.0
Matrix Compiler1: 2.75 KB object code size  0.6/0.5/[0.3]
Matrix Compiler2: 2.46 KB object code size  0.4/0.5/[0.3]

