Circuit: *** SPICE deck for cell 3_stage_Charge_sim{lay} from library Lab6

WARNING: Specified period is not longer than the sum of Trise, Tfall, and Ton for vin.  Increasing period to 4.2e-08
WARNING: Less than two connections to node d_in.  This node is used by vin.
Instance "m:3_stage__0:nmos_1": Length shorter than recommended for a level 3 MOSFET.
Instance "m:3_stage__0:nmos_2": Length shorter than recommended for a level 3 MOSFET.
Instance "m:3_stage__0:nmos_3": Length shorter than recommended for a level 3 MOSFET.
Instance "m:3_stage__0:nmos_4": Length shorter than recommended for a level 3 MOSFET.
Direct Newton iteration for .op point succeeded.

Date: Wed Nov  8 21:03:22 2023
Total elapsed time: 0.189 seconds.

tnom = 27
temp = 27
method = modified trap
totiter = 2116
traniter = 2106
tranpoints = 1054
accept = 1052
rejected = 2
matrix size = 7
fillins = 0
solver = Normal
Avg thread counts: 2.3/3.6/3.6/2.3
Matrix Compiler1: 196 bytes object code size  0.2/0.2/[0.1]
Matrix Compiler2: 399 bytes object code size  0.2/0.3/[0.1]

