Circuit: *** SPICE deck for cell Regulation{sch} from library Lab6

WARNING: Less than two connections to node 1.  This node is used by vdd.
Direct Newton iteration for .op point succeeded.

Date: Thu Nov  9 14:13:59 2023
Total elapsed time: 0.222 seconds.

tnom = 27
temp = 27
method = modified trap
totiter = 2136
traniter = 2098
tranpoints = 1050
accept = 1048
rejected = 2
matrix size = 37
fillins = 0
solver = Normal
Avg thread counts: 3.3/3.6/3.6/2.3
Matrix Compiler1: 5.92 KB object code size  1.0/0.8/[0.6]
Matrix Compiler2: off  [0.4]/0.8/0.5

