Circuit: *** SPICE deck for cell Regulation{sch} from library Lab6

Direct Newton iteration for .op point succeeded.

Date: Fri Nov 10 12:17:05 2023
Total elapsed time: 0.189 seconds.

tnom = 27
temp = 27
method = modified trap
totiter = 2095
traniter = 2082
tranpoints = 1042
accept = 1042
rejected = 0
matrix size = 36
fillins = 0
solver = Normal
Avg thread counts: 3.3/3.7/3.6/2.3
Matrix Compiler1: 4.93 KB object code size  1.2/0.7/[0.5]
Matrix Compiler2: off  [0.5]/0.8/0.6

