Circuit: *** SPICE deck for cell ring_oscillator{sch} from library Lab6

Direct Newton iteration failed to find .op point.  (Use ".option noopiter" to skip.)
Starting Gmin stepping
Gmin = 10
Gmin = 1.07374
Gmin = 0.115292
Gmin = 0.0123794
Gmin = 0.00132923
Gmin = 0.000142725
Gmin = 1.5325e-05
Gmin = 1.6455e-06
Gmin = 1.76685e-07
Gmin = 1.89714e-08
Gmin = 2.03704e-09
Gmin = 2.18725e-10
Gmin = 2.34854e-11
Gmin = 2.52173e-12
Gmin = 2.70769e-13
Gmin = 0
Gmin stepping succeeded in finding the operating point.


Date: Fri Nov 10 12:11:18 2023
Total elapsed time: 0.325 seconds.

tnom = 27
temp = 27
method = modified trap
totiter = 7507
traniter = 7133
tranpoints = 2054
accept = 1706
rejected = 348
matrix size = 58
fillins = 4
solver = Normal
Avg thread counts: 7.4/3.3/2.4/1.4
Matrix Compiler1: 7.75 KB object code size  1.3/0.8/[0.4]
Matrix Compiler2: 6.91 KB object code size  0.9/1.1/[0.5]

