Circuit: *** SPICE deck for cell NAND_2{sch} from library Full_Adder

