Circuit: *** SPICE deck for cell test_inverters_load{sch} from library lab_4_inverters

Ignoring BSIM parameter XL
Ignoring BSIM parameter XW
Ignoring BSIM parameter XL
Ignoring BSIM parameter XW
Warning: Pd = 0 is less than W.
Warning: Ps = 0 is less than W.
Warning: Pd = 0 is less than W.
Warning: Ps = 0 is less than W.
Warning: Pd = 0 is less than W.
Warning: Ps = 0 is less than W.
Warning: Pd = 0 is less than W.
Warning: Ps = 0 is less than W.
Direct Newton iteration for .op point succeeded.
.step x=1e-15
.step x=1e-14
.step x=1e-13

Date: Wed Oct 18 13:09:04 2023
Total elapsed time: 0.151 seconds.

tnom = 27
temp = 27
method = modified trap
totiter = 739
traniter = 726
tranpoints = 346
accept = 318
rejected = 28
matrix size = 6
fillins = 0
solver = Normal
Avg thread counts: 4.6/6.5/6.5/4.6
Matrix Compiler1: off  [0.0]/0.1/0.1
Matrix Compiler2: off  [0.0]/0.1/0.1

