Circuit: *** SPICE deck for cell test_inverters{sch} from library lab_4_inverters

Ignoring BSIM parameter XL
Ignoring BSIM parameter XW
Ignoring BSIM parameter XL
Ignoring BSIM parameter XW
Warning: Pd = 0 is less than W.
Warning: Ps = 0 is less than W.
Warning: Pd = 0 is less than W.
Warning: Ps = 0 is less than W.
Warning: Pd = 0 is less than W.
Warning: Ps = 0 is less than W.
Warning: Pd = 0 is less than W.
Warning: Ps = 0 is less than W.

Date: Mon Oct 16 16:08:16 2023
Total elapsed time: 0.143 seconds.

tnom = 27
temp = 27
method = trap
totiter = 10013
traniter = 0
tranpoints = 0
accept = 0
rejected = 0
matrix size = 6
fillins = 0
solver = Normal
Avg thread counts: 1.3/0.0/1.5/1.3
Matrix Compiler1: off  [0.1]/0.1/0.1
Matrix Compiler2: 448 bytes object code size  0.1/0.2/[0.1]

